data/Master_nando_Neutral/LineCodes.txt
new linecode.lc_247-3ph nphases=4 Units=km  Rmatrix=[  0.19866667   0.07166667   0.07166667  0 |  0.07166667   0.19866667   0.07166667  0 |  0.07166667   0.07166667   0.19866667  0 | 0 0 0 0.19866667]  Xmatrix=[  0.07766667   0.00566667   0.00566667  0 |  0.00566667   0.07766667   0.00566667  0 |  0.00566667   0.00566667   0.07766667  0 | 0 0 0 0.07766667]  Cmatrix=[  0.00031831   0.00000000   0.00000000   0 |  0.00000000   0.00031831   0.00000000   0 |  0.00000000   0.00000000   0.00031831   0 | 0 0 0 0.00031831]  NormAmps=280.0 baseFreq=50 faultrate=0.1 pctperm=20 repair=3 Kron=N Rg=0.01805 Xg=0.15508 rho=100 neutral=3 B1=0.0001 B0=0.0001
new linecode.lc_248-3ph nphases=4 Units=km  Rmatrix=[  2.18600000   1.03700000   1.03700000  0 |  1.03700000   2.18600000   1.03700000  0 |  1.03700000   1.03700000   2.18600000  0 | 0 0 0 2.18600000]  Xmatrix=[  0.08400000   0.00400000   0.00400000  0 |  0.00400000   0.08400000   0.00400000  0 |  0.00400000   0.00400000   0.08400000  0 | 0 0 0 0.08400000]  Cmatrix=[  0.00031831   0.00000000   0.00000000  0 |  0.00000000   0.00031831   0.00000000  0 |  0.00000000   0.00000000   0.00031831  0 | 0 0 0 0.00031831]  NormAmps=107.0 baseFreq=50 faultrate=0.1 pctperm=20 repair=3 Kron=N Rg=0.01805 Xg=0.15508 rho=100 neutral=3 B1=0.0001 B0=0.0001

new linecode.lc_247-1ph nphases=1 R1=0.127 X1=0.072 R0=0.342 X0=0.089 C1=0.00031831 C0=0.00031831 Units=km Rmatrix=[  0.19866667 ] Xmatrix=[  0.07766667 ] Cmatrix=[  0.00031831 ] NormAmps=280.0 baseFreq=50 faultrate=0.1 pctperm=20 repair=3 Kron=N Rg=0.01805 Xg=0.15508 rho=100 neutral=1 B1=0.0001 B0=0.0001
new linecode.lc_248-1ph nphases=3 R1=1.149 X1=0.08 R0=4.26 X0=0.092 C1=0.00031831 C0=0.00031831 Units=km Rmatrix=[  2.18600000   1.03700000   1.03700000 |  1.03700000   2.18600000   1.03700000 |  1.03700000   1.03700000   2.18600000 ] Xmatrix=[  0.08400000   0.00400000   0.00400000 |  0.00400000   0.08400000   0.00400000 |  0.00400000   0.00400000   0.08400000 ] Cmatrix=[  0.00031831   0.00000000   0.00000000 |  0.00000000   0.00031831   0.00000000 |  0.00000000   0.00000000   0.00031831 ] NormAmps=107.0 baseFreq=50 faultrate=0.1 pctperm=20 repair=3 Kron=N Rg=0.01805 Xg=0.15508 rho=100 neutral=3 B1=0.0001 B0=0.0001
