data/Master_nando_Neutral/PVSystems.txt
new PVSystem.PV_hv_f0_lv28_f0_c0 phases=1 irradiance=1 %cutin=0.05 %cutout=0.05 vmaxpu=1.5 vminpu=0.5 kva=5.0 pmpp=5 bus1=hv_f0_lv28_f0_c0.1.4 pf=1 enabled=True kv=0.23 daily=pvshape1 VarFollowInverter=True
new PVSystem.PV_hv_f0_lv28_f0_c3 phases=1 irradiance=1 %cutin=0.05 %cutout=0.05 vmaxpu=1.5 vminpu=0.5 kva=5.0 pmpp=5 bus1=hv_f0_lv28_f0_c3.1.4 pf=1 enabled=True kv=0.23 daily=pvshape1 VarFollowInverter=True
new PVSystem.PV_hv_f0_lv28_f0_c4 phases=1 irradiance=1 %cutin=0.05 %cutout=0.05 vmaxpu=1.5 vminpu=0.5 kva=5.0 pmpp=5 bus1=hv_f0_lv28_f0_c4.2.4 pf=1 enabled=True kv=0.23 daily=pvshape1 VarFollowInverter=True
new PVSystem.PV_hv_f0_lv28_f0_c8 phases=1 irradiance=1 %cutin=0.05 %cutout=0.05 vmaxpu=1.5 vminpu=0.5 kva=5.0 pmpp=5 bus1=hv_f0_lv28_f0_c8.3 pf=1 enabled=True kv=0.23 daily=pvshape1 VarFollowInverter=True
new PVSystem.PV_hv_f0_lv28_f0_c13 phases=1 irradiance=1 %cutin=0.05 %cutout=0.05 vmaxpu=1.5 vminpu=0.5 kva=5.0 pmpp=5 bus1=hv_f0_lv28_f0_c13.2 pf=1 enabled=True kv=0.23 daily=pvshape1 VarFollowInverter=True
new PVSystem.PV_hv_f0_lv28_f0_c15 phases=1 irradiance=1 %cutin=0.05 %cutout=0.05 vmaxpu=1.5 vminpu=0.5 kva=5.0 pmpp=5 bus1=hv_f0_lv28_f0_c15.1 pf=1 enabled=True kv=0.23 daily=pvshape1 VarFollowInverter=True
new PVSystem.PV_hv_f0_lv28_f0_c17 phases=1 irradiance=1 %cutin=0.05 %cutout=0.05 vmaxpu=1.5 vminpu=0.5 kva=5.0 pmpp=5 bus1=hv_f0_lv28_f0_c17.3 pf=1 enabled=True kv=0.23 daily=pvshape1 VarFollowInverter=True
new PVSystem.PV_hv_f0_lv28_f0_c19 phases=1 irradiance=1 %cutin=0.05 %cutout=0.05 vmaxpu=1.5 vminpu=0.5 kva=5.0 pmpp=5 bus1=hv_f0_lv28_f0_c19.2 pf=1 enabled=True kv=0.23 daily=pvshape1 VarFollowInverter=True
new PVSystem.PV_hv_f0_lv28_f0_c20 phases=1 irradiance=1 %cutin=0.05 %cutout=0.05 vmaxpu=1.5 vminpu=0.5 kva=5.0 pmpp=5 bus1=hv_f0_lv28_f0_c20.3 pf=1 enabled=True kv=0.23 daily=pvshape1 VarFollowInverter=True
new PVSystem.PV_hv_f0_lv28_f0_c24 phases=1 irradiance=1 %cutin=0.05 %cutout=0.05 vmaxpu=1.5 vminpu=0.5 kva=5.0 pmpp=5 bus1=hv_f0_lv28_f0_c24.1 pf=1 enabled=True kv=0.23 daily=pvshape1 VarFollowInverter=True
new PVSystem.PV_hv_f0_lv28_f0_c25 phases=1 irradiance=1 %cutin=0.05 %cutout=0.05 vmaxpu=1.5 vminpu=0.5 kva=5.0 pmpp=5 bus1=hv_f0_lv28_f0_c25.2 pf=1 enabled=True kv=0.23 daily=pvshape1 VarFollowInverter=True
new PVSystem.PV_hv_f0_lv28_f0_c26 phases=1 irradiance=1 %cutin=0.05 %cutout=0.05 vmaxpu=1.5 vminpu=0.5 kva=5.0 pmpp=5 bus1=hv_f0_lv28_f0_c26.3 pf=1 enabled=True kv=0.23 daily=pvshape1 VarFollowInverter=True
new PVSystem.PV_hv_f0_lv28_f0_c30 phases=1 irradiance=1 %cutin=0.05 %cutout=0.05 vmaxpu=1.5 vminpu=0.5 kva=5.0 pmpp=5 bus1=hv_f0_lv28_f0_c30.1 pf=1 enabled=True kv=0.23 daily=pvshape1 VarFollowInverter=True
new PVSystem.PV_hv_f0_lv28_f0_c35 phases=1 irradiance=1 %cutin=0.05 %cutout=0.05 vmaxpu=1.5 vminpu=0.5 kva=5.0 pmpp=5 bus1=hv_f0_lv28_f0_c35.3 pf=1 enabled=True kv=0.23 daily=pvshape1 VarFollowInverter=True
new PVSystem.PV_hv_f0_lv28_f0_c37 phases=1 irradiance=1 %cutin=0.05 %cutout=0.05 vmaxpu=1.5 vminpu=0.5 kva=5.0 pmpp=5 bus1=hv_f0_lv28_f0_c37.2 pf=1 enabled=True kv=0.23 daily=pvshape1 VarFollowInverter=True
new PVSystem.PV_hv_f0_lv28_f0_c39 phases=1 irradiance=1 %cutin=0.05 %cutout=0.05 vmaxpu=1.5 vminpu=0.5 kva=5.0 pmpp=5 bus1=hv_f0_lv28_f0_c39.1 pf=1 enabled=True kv=0.23 daily=pvshape1 VarFollowInverter=True
new PVSystem.PV_hv_f0_lv28_f1_c9 phases=1 irradiance=1 %cutin=0.05 %cutout=0.05 vmaxpu=1.5 vminpu=0.5 kva=5.0 pmpp=5 bus1=hv_f0_lv28_f1_c9.1 pf=1 enabled=True kv=0.23 daily=pvshape1 VarFollowInverter=True
new PVSystem.PV_hv_f0_lv28_f1_c12 phases=1 irradiance=1 %cutin=0.05 %cutout=0.05 vmaxpu=1.5 vminpu=0.5 kva=5.0 pmpp=5 bus1=hv_f0_lv28_f1_c12.1 pf=1 enabled=True kv=0.23 daily=pvshape1 VarFollowInverter=True
new PVSystem.PV_hv_f0_lv28_f1_c16 phases=1 irradiance=1 %cutin=0.05 %cutout=0.05 vmaxpu=1.5 vminpu=0.5 kva=5.0 pmpp=5 bus1=hv_f0_lv28_f1_c16.2 pf=1 enabled=True kv=0.23 daily=pvshape1 VarFollowInverter=True
new PVSystem.PV_hv_f0_lv28_f1_c25 phases=1 irradiance=1 %cutin=0.05 %cutout=0.05 vmaxpu=1.5 vminpu=0.5 kva=5.0 pmpp=5 bus1=hv_f0_lv28_f1_c25.2 pf=1 enabled=True kv=0.23 daily=pvshape1 VarFollowInverter=True
new PVSystem.PV_hv_f0_lv28_f1_c28 phases=1 irradiance=1 %cutin=0.05 %cutout=0.05 vmaxpu=1.5 vminpu=0.5 kva=5.0 pmpp=5 bus1=hv_f0_lv28_f1_c28.2 pf=1 enabled=True kv=0.23 daily=pvshape1 VarFollowInverter=True
new PVSystem.PV_hv_f0_lv28_f1_c30 phases=1 irradiance=1 %cutin=0.05 %cutout=0.05 vmaxpu=1.5 vminpu=0.5 kva=5.0 pmpp=5 bus1=hv_f0_lv28_f1_c30.1 pf=1 enabled=True kv=0.23 daily=pvshape1 VarFollowInverter=True
new PVSystem.PV_hv_f0_lv28_f1_c33 phases=1 irradiance=1 %cutin=0.05 %cutout=0.05 vmaxpu=1.5 vminpu=0.5 kva=5.0 pmpp=5 bus1=hv_f0_lv28_f1_c33.1 pf=1 enabled=True kv=0.23 daily=pvshape1 VarFollowInverter=True
new PVSystem.PV_hv_f0_lv28_f1_c35 phases=1 irradiance=1 %cutin=0.05 %cutout=0.05 vmaxpu=1.5 vminpu=0.5 kva=5.0 pmpp=5 bus1=hv_f0_lv28_f1_c35.3 pf=1 enabled=True kv=0.23 daily=pvshape1 VarFollowInverter=True
new PVSystem.PV_hv_f0_lv28_f2_c0 phases=1 irradiance=1 %cutin=0.05 %cutout=0.05 vmaxpu=1.5 vminpu=0.5 kva=5.0 pmpp=5 bus1=hv_f0_lv28_f2_c0.1 pf=1 enabled=True kv=0.23 daily=pvshape1 VarFollowInverter=True
new PVSystem.PV_hv_f0_lv28_f2_c1 phases=1 irradiance=1 %cutin=0.05 %cutout=0.05 vmaxpu=1.5 vminpu=0.5 kva=5.0 pmpp=5 bus1=hv_f0_lv28_f2_c1.2 pf=1 enabled=True kv=0.23 daily=pvshape1 VarFollowInverter=True
new PVSystem.PV_hv_f0_lv28_f2_c7 phases=1 irradiance=1 %cutin=0.05 %cutout=0.05 vmaxpu=1.5 vminpu=0.5 kva=5.0 pmpp=5 bus1=hv_f0_lv28_f2_c7.2 pf=1 enabled=True kv=0.23 daily=pvshape1 VarFollowInverter=True
new PVSystem.PV_hv_f0_lv28_f2_c9 phases=1 irradiance=1 %cutin=0.05 %cutout=0.05 vmaxpu=1.5 vminpu=0.5 kva=5.0 pmpp=5 bus1=hv_f0_lv28_f2_c9.1 pf=1 enabled=True kv=0.23 daily=pvshape1 VarFollowInverter=True
new PVSystem.PV_hv_f0_lv28_f2_c10 phases=1 irradiance=1 %cutin=0.05 %cutout=0.05 vmaxpu=1.5 vminpu=0.5 kva=5.0 pmpp=5 bus1=hv_f0_lv28_f2_c10.2 pf=1 enabled=True kv=0.23 daily=pvshape1 VarFollowInverter=True
new PVSystem.PV_hv_f0_lv28_f2_c13 phases=1 irradiance=1 %cutin=0.05 %cutout=0.05 vmaxpu=1.5 vminpu=0.5 kva=5.0 pmpp=5 bus1=hv_f0_lv28_f2_c13.2 pf=1 enabled=True kv=0.23 daily=pvshape1 VarFollowInverter=True
new PVSystem.PV_hv_f0_lv28_f2_c20 phases=1 irradiance=1 %cutin=0.05 %cutout=0.05 vmaxpu=1.5 vminpu=0.5 kva=5.0 pmpp=5 bus1=hv_f0_lv28_f2_c20.3 pf=1 enabled=True kv=0.23 daily=pvshape1 VarFollowInverter=True
new PVSystem.PV_hv_f0_lv28_f2_c27 phases=1 irradiance=1 %cutin=0.05 %cutout=0.05 vmaxpu=1.5 vminpu=0.5 kva=5.0 pmpp=5 bus1=hv_f0_lv28_f2_c27.1 pf=1 enabled=True kv=0.23 daily=pvshape1 VarFollowInverter=True
new PVSystem.PV_hv_f0_lv28_f2_c28 phases=1 irradiance=1 %cutin=0.05 %cutout=0.05 vmaxpu=1.5 vminpu=0.5 kva=5.0 pmpp=5 bus1=hv_f0_lv28_f2_c28.2 pf=1 enabled=True kv=0.23 daily=pvshape1 VarFollowInverter=True
new PVSystem.PV_hv_f0_lv28_f2_c31 phases=1 irradiance=1 %cutin=0.05 %cutout=0.05 vmaxpu=1.5 vminpu=0.5 kva=5.0 pmpp=5 bus1=hv_f0_lv28_f2_c31.2 pf=1 enabled=True kv=0.23 daily=pvshape1 VarFollowInverter=True
new PVSystem.PV_hv_f0_lv28_f2_c33 phases=1 irradiance=1 %cutin=0.05 %cutout=0.05 vmaxpu=1.5 vminpu=0.5 kva=5.0 pmpp=5 bus1=hv_f0_lv28_f2_c33.1 pf=1 enabled=True kv=0.23 daily=pvshape1 VarFollowInverter=True